@<TRIPOS>MOLECULE
G1X
   24    23     1     0     0
SMALL
No Charge or Current Charge


@<TRIPOS>ATOM
      1 C1          21.5440    79.8200   169.4850 C.2        1 G1X       0.000000
      2 O1          21.7290    78.4270   169.8220 O.2        1 G1X       0.000000
      3 C2          20.2560    80.0110   168.6970 C.3        1 G1X       0.000000
      4 O2          20.3600    79.0340   167.6140 O.3        1 G1X       0.000000
      5 C3          20.0140    81.4730   168.2680 C.3        1 G1X       0.000000
      6 O3          20.8970    81.9570   167.1170 O.3        1 G1X       0.000000
      7 C4          18.4620    81.3680   167.9250 C.3        1 G1X       0.000000
      8 O4          18.2580    80.7880   166.6120 O.3        1 G1X       0.000000
      9 C5          17.9500    82.7920   167.8310 C.3        1 G1X       0.000000
     10 O5          18.9050    83.4440   167.0500 O.3        1 G1X       0.000000
     11 C6          17.9230    83.4210   169.1890 C.3        1 G1X       0.000000
     12 O6          17.9390    84.8310   169.1800 O.3        1 G1X       0.000000
     13 H1          22.2300    80.6220   169.7570 H          1 G1X       0.000000
     14 H2          19.3580    79.8290   169.2870 H          1 G1X       0.000000
     15 H3          19.5180    78.5870   167.5040 H          1 G1X       0.000000
     16 H4          20.2720    82.2260   169.0130 H          1 G1X       0.000000
     17 H5          21.2610    81.1990   166.6530 H          1 G1X       0.000000
     18 H6          17.9650    80.7590   168.6800 H          1 G1X       0.000000
     19 H7          17.3220    80.6260   166.4750 H          1 G1X       0.000000
     20 H8          16.9410    82.8440   167.4210 H          1 G1X       0.000000
     21 H9          18.4680    83.9300   166.3470 H          1 G1X       0.000000
     22 H10         18.8350    83.1050   169.6950 H          1 G1X       0.000000
     23 H11         17.0180    83.0930   169.6990 H          1 G1X       0.000000
     24 H12         17.2750    85.1630   169.7880 H          1 G1X       0.000000
@<TRIPOS>BOND
     1     1     2 2   
     2     1     3 1   
     3     1    13 1   
     4     3     4 1   
     5     3     5 1   
     6     3    14 1   
     7     4    15 1   
     8     5     6 1   
     9     5     7 1   
    10     5    16 1   
    11     6    17 1   
    12     7     8 1   
    13     7     9 1   
    14     7    18 1   
    15     8    19 1   
    16     9    10 1   
    17     9    11 1   
    18     9    20 1   
    19    10    21 1   
    20    11    12 1   
    21    11    22 1   
    22    11    23 1   
    23    12    24 1   
@<TRIPOS>SUBSTRUCTURE
     1 G1X         1 TEMP              0 ****  ****    0 ROOT
