@<TRIPOS>MOLECULE
G1X
 24 23 0 0 0
SMALL
USER_CHARGES

@<TRIPOS>ATOM
      1 C1         21.5440   79.8200  169.4850 C.2     1  G1X1        0.1512
      2 O1         21.7290   78.4270  169.8220 O.2     1  G1X1       -0.2982
      3 C2         20.2560   80.0110  168.6970 C.3     1  G1X1        0.1381
      4 O2         20.3600   79.0340  167.6140 O.3     1  G1X1       -0.3819
      5 C3         20.0140   81.4730  168.2680 C.3     1  G1X1        0.1159
      6 O3         20.8970   81.9570  167.1170 O.3     1  G1X1       -0.3861
      7 C4         18.4620   81.3680  167.9250 C.3     1  G1X1        0.1118
      8 O4         18.2580   80.7880  166.6120 O.3     1  G1X1       -0.3865
      9 C5         17.9500   82.7920  167.8310 C.3     1  G1X1        0.1065
     10 O5         18.9050   83.4440  167.0500 O.3     1  G1X1       -0.3869
     11 C6         17.9230   83.4210  169.1890 C.3     1  G1X1        0.0727
     12 O6         17.9390   84.8310  169.1800 O.3     1  G1X1       -0.3924
     13 H          22.1941   80.5790  169.7426 H       1  G1X1        0.1055
     14 H          19.3749   79.8326  169.2773 H       1  G1X1        0.0697
     15 H          21.1623   79.2081  167.0974 H       1  G1X1        0.2105
     16 H          20.2684   82.2117  168.9991 H       1  G1X1        0.0650
     17 H          20.7787   81.3734  166.3513 H       1  G1X1        0.2100
     18 H          17.9731   80.7715  168.6667 H       1  G1X1        0.0647
     19 H          18.7035   81.3333  165.9449 H       1  G1X1        0.2100
     20 H          16.9604   82.8430  167.4273 H       1  G1X1        0.0643
     21 H          19.7762   83.3613  167.4685 H       1  G1X1        0.2100
     22 H          18.7796   83.0804  169.7323 H       1  G1X1        0.0584
     23 H          16.9981   83.1297  169.6413 H       1  G1X1        0.0584
     24 H          18.7642   85.1424  168.7764 H       1  G1X1        0.2095
@<TRIPOS>BOND
     1     1     2    2
     2     1     3    1
     3     3     4    1
     4     3     5    1
     5     5     6    1
     6     5     7    1
     7     7     8    1
     8     7     9    1
     9     9    10    1
    10     9    11    1
    11    11    12    1
    12     1    13    1
    13     3    14    1
    14     4    15    1
    15     5    16    1
    16     6    17    1
    17     7    18    1
    18     8    19    1
    19     9    20    1
    20    10    21    1
    21    11    22    1
    22    11    23    1
    23    12    24    1
